  
       XFOIL         Version 6.99
  
 Calculated polar for: CLARK Y AIRFOIL                                 
  
 1 1 Reynolds number fixed          Mach number fixed         
  
 xtrf =   1.000 (top)        1.000 (bottom)  
 Mach =   0.000     Re =     0.200 e 6     Ncrit =   9.000
  
   alpha    CL        CD       CDp       CM     Top_Xtr  Bot_Xtr
  ------ -------- --------- --------- -------- -------- --------
   0.000   0.4431   0.01014   0.00467  -0.0953   0.7965   1.0000
   0.250   0.4675   0.01016   0.00458  -0.0944   0.7863   1.0000
   0.500   0.4920   0.01018   0.00450  -0.0936   0.7758   1.0000
   0.750   0.5166   0.01022   0.00444  -0.0928   0.7652   1.0000
   1.000   0.5412   0.01027   0.00440  -0.0920   0.7544   1.0000
   1.250   0.5658   0.01032   0.00437  -0.0911   0.7432   1.0000
   1.500   0.5904   0.01038   0.00435  -0.0903   0.7317   1.0000
   1.750   0.6152   0.01045   0.00434  -0.0895   0.7201   1.0000
   2.000   0.6400   0.01052   0.00433  -0.0887   0.7082   1.0000
   2.250   0.6644   0.01061   0.00435  -0.0878   0.6955   1.0000
   2.500   0.6885   0.01071   0.00439  -0.0869   0.6817   1.0000
   2.750   0.7131   0.01080   0.00443  -0.0860   0.6679   1.0000
   3.000   0.7374   0.01091   0.00447  -0.0851   0.6530   1.0000
   3.250   0.7614   0.01103   0.00453  -0.0842   0.6369   1.0000
   3.500   0.7853   0.01117   0.00461  -0.0832   0.6196   1.0000
   3.750   0.8091   0.01133   0.00469  -0.0823   0.6012   1.0000
   4.000   0.8325   0.01152   0.00480  -0.0812   0.5809   1.0000
   4.250   0.8555   0.01174   0.00493  -0.0802   0.5591   1.0000
   4.500   0.8781   0.01200   0.00509  -0.0790   0.5363   1.0000
   4.750   0.9005   0.01231   0.00529  -0.0779   0.5137   1.0000
   5.000   0.9229   0.01265   0.00551  -0.0769   0.4922   1.0000
   5.250   0.9452   0.01300   0.00576  -0.0758   0.4716   1.0000
   5.500   0.9673   0.01335   0.00602  -0.0747   0.4521   1.0000
   5.750   0.9893   0.01370   0.00630  -0.0737   0.4336   1.0000
   6.000   1.0116   0.01409   0.00659  -0.0727   0.4181   1.0000
   6.250   1.0345   0.01445   0.00693  -0.0719   0.4046   1.0000
   6.500   1.0575   0.01483   0.00729  -0.0711   0.3928   1.0000
   6.750   1.0805   0.01522   0.00766  -0.0703   0.3817   1.0000
   7.000   1.1034   0.01562   0.00805  -0.0695   0.3711   1.0000
   7.250   1.1260   0.01603   0.00846  -0.0687   0.3607   1.0000
   7.500   1.1485   0.01644   0.00888  -0.0678   0.3504   1.0000
   7.750   1.1705   0.01686   0.00932  -0.0669   0.3400   1.0000
   8.000   1.1920   0.01728   0.00977  -0.0659   0.3293   1.0000
   8.250   1.2123   0.01771   0.01021  -0.0647   0.3173   1.0000
   8.500   1.2313   0.01812   0.01066  -0.0634   0.3039   1.0000
   8.750   1.2493   0.01850   0.01111  -0.0618   0.2890   1.0000
   9.000   1.2662   0.01892   0.01156  -0.0602   0.2732   1.0000
   9.250   1.2819   0.01936   0.01203  -0.0583   0.2553   1.0000
   9.500   1.2961   0.01984   0.01254  -0.0562   0.2345   1.0000
   9.750   1.3075   0.02047   0.01315  -0.0538   0.2109   1.0000
  10.000   1.3162   0.02135   0.01392  -0.0512   0.1882   1.0000
  10.250   1.3242   0.02240   0.01487  -0.0486   0.1694   1.0000
  10.500   1.3331   0.02346   0.01589  -0.0463   0.1548   1.0000
  10.750   1.3414   0.02460   0.01701  -0.0441   0.1432   1.0000
  11.000   1.3500   0.02575   0.01815  -0.0421   0.1334   1.0000
  11.250   1.3594   0.02690   0.01933  -0.0402   0.1246   1.0000
  11.500   1.3686   0.02808   0.02055  -0.0385   0.1158   1.0000
  11.750   1.3768   0.02938   0.02188  -0.0369   0.1064   1.0000
  12.000   1.3861   0.03066   0.02321  -0.0354   0.0960   1.0000
  12.250   1.3930   0.03217   0.02476  -0.0340   0.0836   1.0000
  12.500   1.3967   0.03403   0.02659  -0.0324   0.0673   1.0000
  12.750   1.3960   0.03637   0.02886  -0.0307   0.0497   1.0000
  13.000   1.3923   0.03905   0.03150  -0.0292   0.0408   1.0000
  13.250   1.3888   0.04184   0.03431  -0.0280   0.0364   1.0000
  13.500   1.3858   0.04470   0.03725  -0.0270   0.0336   1.0000
  13.750   1.3805   0.04791   0.04053  -0.0263   0.0320   1.0000
  14.000   1.3763   0.05112   0.04387  -0.0258   0.0306   1.0000
  14.250   1.3703   0.05467   0.04754  -0.0256   0.0295   1.0000
  14.500   1.3614   0.05871   0.05166  -0.0257   0.0287   1.0000
  14.750   1.3548   0.06264   0.05572  -0.0260   0.0280   1.0000
  15.000   1.3484   0.06666   0.05987  -0.0264   0.0272   1.0000
  15.250   1.3414   0.07086   0.06418  -0.0271   0.0266   1.0000
  15.500   1.3339   0.07521   0.06862  -0.0279   0.0260   1.0000
  15.750   1.3262   0.07964   0.07311  -0.0288   0.0255   1.0000
  16.000   1.3190   0.08389   0.07738  -0.0295   0.0251   1.0000
  16.250   1.3161   0.08769   0.08131  -0.0302   0.0247   1.0000
  16.500   1.3140   0.09135   0.08508  -0.0308   0.0243   1.0000
  16.750   1.3127   0.09488   0.08870  -0.0314   0.0239   1.0000
  17.000   1.3123   0.09823   0.09212  -0.0320   0.0234   1.0000
  17.250   1.3132   0.10134   0.09529  -0.0324   0.0229   1.0000
  17.500   1.3175   0.10368   0.09760  -0.0323   0.0224   1.0000
  17.750   1.3246   0.10533   0.09923  -0.0315   0.0219   1.0000
  18.000   1.3232   0.10917   0.10325  -0.0327   0.0216   1.0000
  18.250   1.3223   0.11287   0.10711  -0.0339   0.0213   1.0000
  18.500   1.3216   0.11658   0.11097  -0.0351   0.0211   1.0000
  18.750   1.3202   0.12045   0.11499  -0.0366   0.0210   1.0000
  19.000   1.3173   0.12469   0.11939  -0.0384   0.0208   1.0000
  19.250   1.3127   0.12938   0.12426  -0.0408   0.0207   1.0000
  19.500   1.3063   0.13456   0.12962  -0.0437   0.0207   1.0000
  19.750   1.2974   0.14039   0.13565  -0.0473   0.0207   1.0000
  20.000   1.2861   0.14697   0.14244  -0.0517   0.0207   1.0000
